20
autogenerated by Rowan at 2024-11-08 06:38:39
N    -1.32939202   1.19329897   0.29960116
N     1.37371922   1.14215412   0.29904033
C    -0.74810943   0.03408952  -0.00810380
C     0.74888430   0.00576156  -0.00841491
C    -1.49591768  -1.10286609  -0.31620576
C     1.45302601  -1.15861271  -0.31700785
C    -2.87684770  -1.02575505  -0.30244134
C     2.83588882  -1.13387600  -0.30347850
C    -3.47660750   0.17880038   0.01717383
C     3.48091367   0.04705466   0.01615333
C    -2.65328873   1.25616684   0.30986339
C     2.69904841   1.15482521   0.30902181
H    -1.01816273  -2.03672689  -0.56363809
H     0.94019315  -2.07352844  -0.56500001
H    -3.47253504  -1.89580940  -0.53841932
H     3.39814350  -2.02584274  -0.53967476
H    -4.55038750   0.28605101   0.04053313
H     4.55799017   0.11354021   0.03935144
H    -3.08458026   2.21719208   0.56516505
H     3.16648406   2.09882738   0.56421646
20
autogenerated by Rowan at 2024-11-08 06:39:04
N    -2.05156420   1.21093473   0.30700567
N     0.65117945   1.08284868   0.51798507
C    -1.46940298   0.05129899   0.00335555
C     0.02684652   0.01958262   0.01247531
C    -2.21419257  -1.09199587  -0.28775390
C     0.72931645  -1.06756502  -0.50831837
C    -3.59529511  -1.01646291  -0.27829479
C     2.11218696  -1.04993484  -0.48386290
C    -4.19687235   0.19239256   0.02202879
C     2.75753755   0.04821628   0.05558829
C    -3.37583274   1.27305025   0.30900822
C     1.97671068   1.08731536   0.54022077
H    -1.73234734  -2.03322157  -0.49772369
H     0.21368946  -1.90680809  -0.94645947
H    -4.18985085  -1.89090232  -0.50042618
H     2.67436529  -1.88193006  -0.88289038
H    -5.27080536   0.29925796   0.03952813
H     3.83458081   0.10528907   0.09776579
H    -3.80914458   2.23550222   0.55509449
H     2.44498553   1.96764258   0.96492518
20
autogenerated by Rowan at 2024-11-08 06:39:09
N    -2.05147549   1.21565278   0.30579133
N     0.64920821   0.97839287   0.70466082
C    -1.46860558   0.05605868   0.00454525
C     0.02616722   0.02111172   0.01867125
C    -2.20767926  -1.09139512  -0.28370701
C     0.72485798  -0.95961487  -0.68558329
C    -3.58921669  -1.01969948  -0.27632904
C     2.10792000  -0.95097123  -0.65549283
C    -4.19366497   0.19006423   0.01649875
C     2.75396171   0.03141086   0.07401973
C    -3.37655736   1.27406014   0.30230878
C     1.97527625   0.97194996   0.73237737
H    -1.71773303  -2.03245858  -0.47868501
H     0.20304254  -1.69805623  -1.27386653
H    -4.18199444  -1.89655054  -0.49348725
H     2.66986764  -1.69890200  -1.19607171
H    -5.26785238   0.29463676   0.03103170
H     3.83098370   0.07622490   0.12915851
H    -3.81349956   2.23574862   0.54434318
H     2.44544725   1.76132585   1.30698095
20
autogenerated by Rowan at 2024-11-08 06:39:15
N    -2.05174216   1.22128993   0.31131553
N     0.64711821   0.84859716   0.86807914
C    -1.46762706   0.06245511   0.01052271
C     0.02539585   0.02594227   0.02471250
C    -2.19893566  -1.08611010  -0.29039706
C     0.71868908  -0.82912003  -0.83131223
C    -3.58097654  -1.02037280  -0.28391286
C     2.10196113  -0.82999408  -0.80034587
C    -4.18951811   0.18655815   0.01428193
C     2.74942321   0.01373905   0.08556108
C    -3.37777875   1.27343227   0.30482467
C     1.97381610   0.83129041   0.89468047
H    -1.69694623  -2.01962555  -0.49455883
H     0.18705487  -1.45789971  -1.52925746
H    -4.17109238  -1.89758956  -0.50653095
H     2.66313672  -1.47770807  -1.45826150
H    -5.26405471   0.28713342   0.02828126
H     3.82647198   0.04552308   0.14798733
H    -3.81969456   2.23222148   0.54852406
H     2.44677892   1.50863630   1.59572587
20
autogenerated by Rowan at 2024-11-08 06:39:20
N    -2.05218584   1.22699315   0.32148664
N     0.64477567   0.69630002   1.00622091
C    -1.46674906   0.06910861   0.02005151
C     0.02477384   0.03249298   0.03192416
C    -2.19012089  -1.07789427  -0.30193461
C     0.71285908  -0.68022084  -0.94845024
C    -3.57262150  -1.01834236  -0.29701624
C     2.09629580  -0.69044941  -0.91882552
C    -4.18534174   0.18398730   0.01294135
C     2.74485563  -0.00415020   0.09382426
C    -3.37913485   1.27272046   0.31232397
C     1.97208409   0.66953138   1.02865984
H    -1.67522639  -1.99989349  -0.52716850
H     0.17072949  -1.19365828  -1.72845475
H    -4.16007907  -1.89432975  -0.53099667
H     2.65699939  -1.22444902  -1.67225963
H    -5.26025480   0.28031814   0.02677735
H     3.82194825   0.01439094   0.16043409
H    -3.82606803   2.22775986   0.56065002
H     2.44753813   1.21768019   1.83301760
20
autogenerated by Rowan at 2024-11-08 06:39:27
N    -2.05221234   1.23100910   0.33367171
N     0.64159999   0.52353577   1.11578702
C    -1.46634695   0.07367702   0.03101392
C     0.02456520   0.03804367   0.03976513
C    -2.18371412  -1.06982789  -0.31335001
C     0.70974047  -0.51512845  -1.03974397
C    -3.56648004  -1.01420619  -0.31095251
C     2.09320569  -0.53391422  -1.01122875
C    -4.18191035   0.18360842   0.01226914
C     2.74107735  -0.02181830   0.10052926
C    -3.37983696   1.27248597   0.32208145
C     1.96937013   0.48975425   1.13383592
H    -1.65878600  -1.98038854  -0.56150784
H     0.16012753  -0.90555581  -1.88339378
H    -4.15254555  -1.88750975  -0.55789157
H     2.65496902  -0.94141964  -1.83916127
H    -5.25710964   0.27691584   0.02559287
H     3.81814826  -0.01646711   0.17000195
H    -3.83014921   2.22419138   0.57609110
H     2.44542410   0.89473567   2.01837409
20
autogenerated by Rowan at 2024-11-08 06:39:47
N    -2.04940652   1.23007274   0.34068106
N     0.63507619   0.32874228   1.19095931
C    -1.46676409   0.07134850   0.03674474
C     0.02490303   0.03627718   0.04350930
C    -2.18412192  -1.06823263  -0.31875865
C     0.71364632  -0.33240919  -1.10945746
C    -3.56676083  -1.01000654  -0.31802675
C     2.09690639  -0.35792160  -1.07746760
C    -4.18010130   0.18673610   0.01367804
C     2.73902245  -0.03828897   0.10740744
C    -3.37736966   1.27314050   0.32948226
C     1.96316486   0.29234084   1.20882254
H    -1.65736843  -1.97440557  -0.57929873
H     0.16495441  -0.58262499  -2.00546486
H    -4.15478676  -1.87969655  -0.57256475
H     2.66339553  -0.62329338  -1.95814466
H    -5.25523922   0.28096266   0.02723131
H     3.81581746  -0.04516087   0.18122460
H    -3.82654098   2.22403079   0.58777572
H     2.43510698   0.54176812   2.15101087
20
autogenerated by Rowan at 2024-11-08 06:40:07
N    -2.03653663   1.21552139   0.32381741
N     0.61764477   0.10292483   1.21501659
C    -1.46835643   0.04968199   0.01790882
C     0.02565109   0.01336343   0.02459183
C    -2.20180107  -1.08824666  -0.30793533
C     0.73495611  -0.12108514  -1.16612492
C    -3.58340584  -1.01174701  -0.30160838
C     2.11746726  -0.14981674  -1.11550376
C    -4.18081110   0.19525377   0.02095514
C     2.73964276  -0.05147333   0.11779102
C    -3.36411140   1.27435664   0.32386719
C     1.94574707   0.07193029   1.24815352
H    -1.69366350  -2.01132314  -0.54576488
H     0.20806236  -0.18677058  -2.10681904
H    -4.18246052  -1.87763125  -0.54190957
H     2.69828443  -0.24523904  -2.02099387
H    -5.25476075   0.30142722   0.03985343
H     3.81528997  -0.06816446   0.20555511
H    -3.80016701   2.23179002   0.58028934
H     2.40146500   0.15107900   2.22725093
20
autogenerated by Rowan at 2024-11-08 06:40:14
N    -2.02812900   1.20529970   0.30661834
N     0.60476982  -0.12231992   1.20112761
C    -1.46985672   0.03483179  -0.00042324
C     0.02655324  -0.00327679   0.00637613
C    -2.21464920  -1.10160876  -0.30364858
C     0.75158281   0.09144144  -1.17832545
C    -3.59564088  -1.01384360  -0.28791153
C     2.13362328   0.05895284  -1.11509306
C    -4.18208894   0.19986597   0.02978992
C     2.74074835  -0.06522469   0.12342410
C    -3.35549769   1.27457395   0.31905445
C     1.93290993  -0.15091156   1.24680310
H    -1.71857504  -2.03295501  -0.53466663
H     0.23988906   0.19930524  -2.12352363
H    -4.20317003  -1.87716963  -0.51562299
H     2.72617630   0.13286828  -2.01492254
H    -5.25513917   0.31323348   0.05649583
H     3.81543540  -0.09232476   0.21994517
H    -3.78169324   2.23676043   0.57419862
H     2.37555622  -0.24578854   2.23047285
20
autogenerated by Rowan at 2024-11-08 06:40:20
N    -2.02555583   1.20340800   0.29608255
N     0.59808456  -0.33732504   1.15677464
C    -1.47026337   0.03151161  -0.01030907
C     0.02674576  -0.01124599  -0.00202306
C    -2.21783118  -1.10709057  -0.29713886
C     0.75866875   0.30276128  -1.14361413
C    -3.59841019  -1.01637502  -0.28005056
C     2.14014048   0.25908956  -1.07919357
C    -4.18203411   0.20090575   0.03032093
C     2.74030791  -0.08650992   0.12042237
C    -3.35320954   1.27535982   0.31204233
C     1.92644373  -0.37208525   1.20524544
H    -1.72223060  -2.04040486  -0.52038134
H     0.25064172   0.58094913  -2.05523494
H    -4.20816645  -1.88024395  -0.49945499
H     2.73799043   0.49538109  -1.94692146
H    -5.25486307   0.31603585   0.05843196
H     3.81449739  -0.12992708   0.21654320
H    -3.77664271   2.23960039   0.56393012
H     2.36308062  -0.64025048   2.15915216
20
autogenerated by Rowan at 2024-11-08 06:40:24
N    -2.02219721   1.20530879   0.28329401
N     0.59083980  -0.54420394   1.07589292
C    -1.46932471   0.03200662  -0.02153918
C     0.02565717  -0.01964519  -0.01067922
C    -2.21652373  -1.11169878  -0.28703612
C     0.76115186   0.50720455  -1.06819129
C    -3.59662198  -1.01998296  -0.27329469
C     2.14189377   0.44941151  -1.00915918
C    -4.17925823   0.20137010   0.02444816
C     2.73706211  -0.11166899   0.10922388
C    -3.35037560   1.27726315   0.29999743
C     1.91957769  -0.58667021   1.12244258
H    -1.71489850  -2.04745372  -0.48475966
H     0.25037995   0.96074117  -1.90471773
H    -4.20651355  -1.88634438  -0.48202012
H     2.74280405   0.84237501  -1.81575806
H    -5.25199454   0.31772617   0.05073225
H     3.81083090  -0.17360968   0.19964965
H    -3.77364590   2.24282963   0.54716042
H     2.35292624  -1.02097210   2.01471867
20
autogenerated by Rowan at 2024-11-08 06:40:28
N    -2.01808508   1.20650616   0.27133865
N     0.58319991  -0.73148602   0.95867466
C    -1.46784642   0.03159274  -0.03364035
C     0.02406881  -0.02495599  -0.02335778
C    -2.21546170  -1.11441354  -0.28664016
C     0.76344811   0.68707598  -0.96282261
C    -3.59534589  -1.02113167  -0.26997797
C     2.14383298   0.62019318  -0.90692415
C    -4.17649453   0.20163876   0.02535382
C     2.73397298  -0.12933388   0.09809568
C    -3.34633191   1.27827252   0.29576496
C     1.91195141  -0.77666186   1.00731447
H    -1.71097632  -2.05065440  -0.47322025
H     0.25257730   1.28665252  -1.70132395
H    -4.20671828  -1.88799497  -0.47244506
H     2.74883620   1.15145600  -1.62661225
H    -5.24905622   0.31889120   0.05532233
H     3.80733040  -0.20465791   0.18333037
H    -3.76848129   2.24427744   0.54371574
H     2.34137473  -1.35923110   1.81295983
20
autogenerated by Rowan at 2024-11-08 06:40:32
N    -2.01545145   1.20691463   0.26165116
N     0.57752543  -0.89217726   0.81087380
C    -1.46645009   0.03137083  -0.04443059
C     0.02265435  -0.02572703  -0.03669795
C    -2.21460512  -1.11595455  -0.28953019
C     0.76553030   0.84347633  -0.82965719
C    -3.59430544  -1.02157742  -0.26712310
C     2.14561628   0.76943093  -0.77614847
C    -4.17455684   0.20146947   0.02888950
C     2.73176578  -0.14326895   0.08615363
C    -3.34320692   1.27880155   0.29444261
C     1.90571095  -0.94141678   0.86261899
H    -1.70918028  -2.05182736  -0.47286425
H     0.25601442   1.56361696  -1.45152149
H    -4.20722091  -1.88852226  -0.46512321
H     2.75441974   1.41970069  -1.38686064
H    -5.24701254   0.31868799   0.06375357
H     3.80479908  -0.23007942   0.16477540
H    -3.76330771   2.24538244   0.54354361
H     2.33061033  -1.65505427   1.55759880
20
autogenerated by Rowan at 2024-11-08 06:40:36
N    -2.01691747   1.20857889   0.25968900
N     0.57655540  -1.02180486   0.64427327
C    -1.46582048   0.03384913  -0.04734065
C     0.02214033  -0.02228298  -0.04242049
C    -2.21385261  -1.11306219  -0.29617525
C     0.76723115   0.96950781  -0.67334522
C    -3.59331948  -1.01973309  -0.26896216
C     2.14695006   0.88951579  -0.62479509
C    -4.17489220   0.20110782   0.03346871
C     2.73186941  -0.15494008   0.07314767
C    -3.34423754   1.27895189   0.29897740
C     1.90418117  -1.07602843   0.69665214
H    -1.70775065  -2.04644563  -0.48725019
H     0.25884081   1.78184213  -1.16883074
H    -4.20578540  -1.88669762  -0.46895686
H     2.75711963   1.63509630  -1.11320213
H    -5.24745487   0.31638934   0.07250383
H     3.80479338  -0.25115187   0.14229643
H    -3.76410355   2.24461266   0.55210215
H     2.32677793  -1.89737223   1.26204308
20
autogenerated by Rowan at 2024-11-08 06:40:40
N    -2.02130596   1.20996392   0.26493377
N     0.57912971  -1.11876858   0.46437360
C    -1.46582923   0.03694458  -0.04288837
C     0.02230958  -0.01686692  -0.04064938
C    -2.21373045  -1.10830113  -0.30280012
C     0.76902323   1.06562183  -0.49795998
C    -3.59302913  -1.01681803  -0.27344195
C     2.14843694   0.98021723  -0.45769902
C    -4.17732836   0.20057760   0.03721409
C     2.73410792  -0.16489865   0.05772545
C    -3.34833841   1.27842859   0.30653604
C     1.90631105  -1.17935575   0.51286300
H    -1.70824272  -2.03874216  -0.50680170
H     0.26260413   1.94664663  -0.85877877
H    -4.20385835  -1.88363283  -0.47978711
H     2.75833720   1.79784730  -0.81345229
H    -5.25012721   0.31348606   0.07799299
H     3.80706744  -0.26932314   0.11396072
H    -3.76896622   2.24273752   0.56395187
H     2.32805631  -2.08443173   0.93244635
20
autogenerated by Rowan at 2024-11-08 06:40:43
N    -2.02639961   1.20986717   0.27562837
N     0.58302076  -1.18248131   0.27568464
C    -1.46604065   0.03884276  -0.03287159
C     0.02265832  -0.01147246  -0.03286863
C    -2.21375306  -1.10421266  -0.30617009
C     0.77037048   1.13157024  -0.30621797
C    -3.59296233  -1.01412089  -0.27839718
C     2.14958030   1.04148645  -0.27843936
C    -4.18037522   0.20015772   0.03811958
C     2.73699732  -0.17277489   0.03813313
C    -3.35316453   1.27745047   0.31359591
C     1.90978541  -1.25005528   0.31365536
H    -1.70917381  -2.03195710  -0.52230967
H     0.26578924   2.05930395  -0.52239941
H    -4.20184810  -1.88054685  -0.49275882
H     2.75846289   1.90790493  -0.49283979
H    -5.25346110   0.31152139   0.07686392
H     3.81008395  -0.28413464   0.07688527
H    -3.77440675   2.24106388   0.57302019
H     2.33102964  -2.21365532   0.57312540
20
autogenerated by Rowan at 2024-11-08 06:40:47
N    -2.02999067   1.20864276   0.28867296
N     0.58594054  -1.21358465   0.08119041
C    -1.46610434   0.03915341  -0.02039800
C     0.02279497  -0.00801750  -0.02205364
C    -2.21355172  -1.10141870  -0.30661606
C     0.77089465   1.16468003  -0.10349341
C    -3.59281146  -1.01233001  -0.28274948
C     2.15009488   1.07238087  -0.09091416
C    -4.18257533   0.19997186   0.03677038
C     2.73909850  -0.17717466   0.01527512
C    -3.35653293   1.27627817   0.31885413
C     1.91239160  -1.28583356   0.10353755
H    -1.70896086  -2.02662094  -0.53251194
H     0.26681134   2.11520650  -0.16702823
H    -4.20002836  -1.87818973  -0.50485181
H     2.75781798   1.96345698  -0.15735543
H    -5.25592825   0.31097308   0.07105736
H     3.81236024  -0.29279669   0.03330907
H    -3.77808305   2.23987988   0.57817905
H     2.33333228  -2.27995355   0.19306084
20
autogenerated by Rowan at 2024-11-08 06:40:50
N    -2.03311532   1.20677230   0.30103220
N     0.58914744  -1.21193091  -0.11654454
C    -1.46631090   0.03847201  -0.00840514
C     0.02299486  -0.00760595  -0.01154378
C    -2.21311423  -1.10002090  -0.30570256
C     0.77038712   1.16307955   0.10320184
C    -3.59211412  -1.01025407  -0.28538015
C     2.14932824   1.07021161   0.10055784
C    -4.18445805   0.20052263   0.03504609
C     2.74099542  -0.17781307  -0.00847388
C    -3.35949047   1.27597201   0.32244329
C     1.91543588  -1.28578441  -0.11147456
H    -1.70706134  -2.02216231  -0.54012670
H     0.26479733   2.11036884   0.19492228
H    -4.19827112  -1.87523863  -0.51392998
H     2.75594887   1.96052589   0.18547509
H    -5.25794102   0.31164313   0.06431897
H     3.81439442  -0.29345024  -0.01199058
H    -3.78114177   2.23994663   0.58038196
H     2.33652484  -2.28032857  -0.19595002
20
autogenerated by Rowan at 2024-11-08 06:40:53
N    -2.03330662   1.20382010   0.31325357
N     0.58991988  -1.17700442  -0.31117999
C    -1.46635018   0.03578005   0.00324197
C     0.02295727  -0.00896603  -0.00117362
C    -2.21315449  -1.09994969  -0.30480305
C     0.76975961   1.12677098   0.30684820
C    -3.59217039  -1.01007629  -0.28780726
C     2.14877705   1.03694058   0.28972548
C    -4.18408308   0.20065947   0.03349380
C     2.74069650  -0.17378255  -0.03160927
C    -3.35953252   1.27514011   0.32556415
C     1.91614646  -1.24828923  -0.32358646
H    -1.70661344  -2.01939872  -0.54845787
H     0.26321434   2.04618326   0.55063294
H    -4.19821748  -1.87361923  -0.52225798
H     2.75481912   1.90051032   0.52409015
H    -5.25756527   0.31301380   0.05807987
H     3.81417929  -0.28610668  -0.05629581
H    -3.78115648   2.23959242   0.58177492
H     2.33777439  -2.21273936  -0.57979796
